! Program Version,EnergyPlus, Version 9.6.0-f420c06a69, YMD=2022.03.03 20:57,
! Output:Meter Objects (applicable to this run)
Output:Meter,EnergyTransfer:Facility,hourly; !- [J]
Output:Meter:Cumulative,EnergyTransfer:Facility,hourly; !- [J]
Output:Meter,EnergyTransfer:Building,hourly; !- [J]
Output:Meter:Cumulative,EnergyTransfer:Building,hourly; !- [J]
Output:Meter,EnergyTransfer:Zone:INTERIOR SPACE,hourly; !- [J]
Output:Meter:Cumulative,EnergyTransfer:Zone:INTERIOR SPACE,hourly; !- [J]
Output:Meter,Heating:EnergyTransfer,hourly; !- [J]
Output:Meter:Cumulative,Heating:EnergyTransfer,hourly; !- [J]
Output:Meter,Heating:EnergyTransfer:Zone:INTERIOR SPACE,hourly; !- [J]
Output:Meter:Cumulative,Heating:EnergyTransfer:Zone:INTERIOR SPACE,hourly; !- [J]
Output:Meter,General:Heating:EnergyTransfer,hourly; !- [J]
Output:Meter:Cumulative,General:Heating:EnergyTransfer,hourly; !- [J]
Output:Meter,General:Heating:EnergyTransfer:Zone:INTERIOR SPACE,hourly; !- [J]
Output:Meter:Cumulative,General:Heating:EnergyTransfer:Zone:INTERIOR SPACE,hourly; !- [J]
Output:Meter,Cooling:EnergyTransfer,hourly; !- [J]
Output:Meter:Cumulative,Cooling:EnergyTransfer,hourly; !- [J]
Output:Meter,Cooling:EnergyTransfer:Zone:INTERIOR SPACE,hourly; !- [J]
Output:Meter:Cumulative,Cooling:EnergyTransfer:Zone:INTERIOR SPACE,hourly; !- [J]
Output:Meter,General:Cooling:EnergyTransfer,hourly; !- [J]
Output:Meter:Cumulative,General:Cooling:EnergyTransfer,hourly; !- [J]
Output:Meter,General:Cooling:EnergyTransfer:Zone:INTERIOR SPACE,hourly; !- [J]
Output:Meter:Cumulative,General:Cooling:EnergyTransfer:Zone:INTERIOR SPACE,hourly; !- [J]
Output:Meter,Carbon Equivalent:Facility,hourly; !- [kg]
Output:Meter:Cumulative,Carbon Equivalent:Facility,hourly; !- [kg]
Output:Meter,CarbonEquivalentEmissions:Carbon Equivalent,hourly; !- [kg]
Output:Meter:Cumulative,CarbonEquivalentEmissions:Carbon Equivalent,hourly; !- [kg]
